Version 4.1
SHEET 1 880 680
WIRE 96 128 48 128
WIRE 256 128 176 128
WIRE 320 128 256 128
WIRE 48 144 48 128
WIRE 256 160 256 128
WIRE 48 240 48 224
WIRE 256 240 256 224
WIRE 256 240 48 240
WIRE 256 256 256 240
FLAG 256 256 0
FLAG 48 128 VIN
FLAG 320 128 VOUT
SYMBOL res 192 112 R90
WINDOW 0 0 56 VBottom 2
WINDOW 3 32 56 VTop 2
SYMATTR InstName R1
SYMATTR Value 6.8
SYMBOL cap 240 160 R0
SYMATTR InstName C1
SYMATTR Value 4.7µ
SYMBOL voltage 48 128 R0
WINDOW 123 26 84 Left 2
WINDOW 39 0 0 Left 0
SYMATTR Value2 AC 1
SYMATTR InstName V1
SYMATTR Value ""
TEXT 32 272 Left 2 !.ac dec 10 0.1 3mega
